/*--------------------------------*- C++ -*----------------------------------*\
| =========                 |                                                 |
| \\      /  F ield         | OpenFOAM: The Open Source CFD Toolbox           |
|  \\    /   O peration     | Version:  2.4.0                                 |
|   \\  /    A nd           | Web:      www.OpenFOAM.org                      |
|    \\/     M anipulation  |                                                 |
\*---------------------------------------------------------------------------*/
FoamFile
{
    version     2.0;
    format      ascii;
    class       extendedFeatureEdgeMesh;
    location    "constant/extendedFeatureEdgeMesh";
    object      rotorBlades.extendedFeatureEdgeMesh;
}
// * * * * * * * * * * * * * * * * * * * * * * * * * * * * * * * * * * * * * //

// points

104
(
(0.0375 9.18455e-18 0.04)
(2.29614e-18 -0.0375 0.04)
(0.0125 3.06152e-18 0.04)
(-0.0375 -4.59227e-18 0.04)
(7.65379e-19 -0.0125 0.04)
(-6.88841e-18 0.0375 0.04)
(-0.0125 -1.53076e-18 0.04)
(0.0375 9.18455e-18 0.08)
(-2.29614e-18 0.0125 0.04)
(2.29614e-18 -0.0375 0.08)
(0.0125 3.06152e-18 0.08)
(-0.0375 -4.59227e-18 0.08)
(7.65379e-19 -0.0125 0.08)
(-6.88841e-18 0.0375 0.08)
(-0.0125 -1.53076e-18 0.08)
(-2.29614e-18 0.0125 0.08)
(-6.88841e-18 0.0375 0.055)
(-6.88841e-18 0.0375 0.06)
(0.0375 9.18455e-18 0.065)
(0.0375 9.18455e-18 0.06)
(-0.0125 -1.53076e-18 0.06)
(-0.0125 -1.53076e-18 0.055)
(-4.13305e-18 0.0225 0.04)
(-5.0515e-18 0.0275 0.04)
(0.0225 5.51073e-18 0.08)
(0.0275 6.73533e-18 0.08)
(2.29614e-18 -0.0375 0.06)
(2.29614e-18 -0.0375 0.065)
(-2.29614e-18 0.0125 0.06)
(-2.29614e-18 0.0125 0.055)
(0.0125 3.06152e-18 0.06)
(0.0125 3.06152e-18 0.065)
(0.0325 7.95994e-18 0.04)
(0.0275 6.73533e-18 0.04)
(1.68383e-18 -0.0275 0.08)
(1.37768e-18 -0.0225 0.08)
(-0.0375 -4.59227e-18 0.06)
(-0.0375 -4.59227e-18 0.065)
(7.65379e-19 -0.0125 0.065)
(7.65379e-19 -0.0125 0.06)
(1.68383e-18 -0.0275 0.04)
(1.98999e-18 -0.0325 0.04)
(-0.0275 -3.36767e-18 0.08)
(-0.0225 -2.75536e-18 0.08)
(-6.88841e-18 0.0375 0.065)
(0.0375 9.18455e-18 0.07)
(-0.0125 -1.53076e-18 0.065)
(-0.0275 -3.36767e-18 0.04)
(-0.0325 -3.97997e-18 0.04)
(-5.0515e-18 0.0275 0.08)
(-4.13305e-18 0.0225 0.08)
(2.29614e-18 -0.0375 0.07)
(-2.29614e-18 0.0125 0.065)
(0.0125 3.06152e-18 0.07)
(-5.96996e-18 0.0325 0.04)
(0.0325 7.95994e-18 0.08)
(-0.0375 -4.59227e-18 0.07)
(7.65379e-19 -0.0125 0.07)
(0.0375 9.18455e-18 0.045)
(1.98999e-18 -0.0325 0.08)
(-6.88841e-18 0.0375 0.07)
(0.0375 9.18455e-18 0.075)
(-0.0125 -1.53076e-18 0.07)
(2.29614e-18 -0.0375 0.045)
(0.0125 3.06152e-18 0.045)
(0.0175 4.28612e-18 0.04)
(-0.0325 -3.97997e-18 0.08)
(2.29614e-18 -0.0375 0.075)
(-2.29614e-18 0.0125 0.07)
(0.0125 3.06152e-18 0.075)
(-0.0375 -4.59227e-18 0.045)
(1.07153e-18 -0.0175 0.04)
(7.65379e-19 -0.0125 0.045)
(-5.96996e-18 0.0325 0.08)
(-0.0375 -4.59227e-18 0.075)
(7.65379e-19 -0.0125 0.075)
(-6.88841e-18 0.0375 0.045)
(0.0375 9.18455e-18 0.05)
(-0.0175 -2.14306e-18 0.04)
(-0.0125 -1.53076e-18 0.045)
(-6.88841e-18 0.0375 0.075)
(-0.0125 -1.53076e-18 0.075)
(2.29614e-18 -0.0375 0.05)
(-3.21459e-18 0.0175 0.04)
(-2.29614e-18 0.0125 0.045)
(0.0125 3.06152e-18 0.05)
(-2.29614e-18 0.0125 0.075)
(0.0175 4.28612e-18 0.08)
(-0.0375 -4.59227e-18 0.05)
(7.65379e-19 -0.0125 0.05)
(0.0225 5.51073e-18 0.04)
(1.07153e-18 -0.0175 0.08)
(-6.88841e-18 0.0375 0.05)
(0.0375 9.18455e-18 0.055)
(-0.0125 -1.53076e-18 0.05)
(1.37768e-18 -0.0225 0.04)
(-0.0175 -2.14306e-18 0.08)
(2.29614e-18 -0.0375 0.055)
(-2.29614e-18 0.0125 0.05)
(0.0125 3.06152e-18 0.055)
(-0.0225 -2.75536e-18 0.04)
(-3.21459e-18 0.0175 0.08)
(-0.0375 -4.59227e-18 0.055)
(7.65379e-19 -0.0125 0.055)
)

// edges

104
(
(16 17)
(18 19)
(20 21)
(22 23)
(24 25)
(26 27)
(28 29)
(30 31)
(32 33)
(34 35)
(36 37)
(38 39)
(40 41)
(42 43)
(17 44)
(45 18)
(46 20)
(47 48)
(49 50)
(27 51)
(52 28)
(31 53)
(23 54)
(25 55)
(37 56)
(57 38)
(0 32)
(58 0)
(59 34)
(44 60)
(61 45)
(62 46)
(41 1)
(1 63)
(2 64)
(65 2)
(66 42)
(51 67)
(68 52)
(53 69)
(48 3)
(3 70)
(4 71)
(72 4)
(73 49)
(56 74)
(75 57)
(54 5)
(5 76)
(77 58)
(6 78)
(79 6)
(60 80)
(7 61)
(55 7)
(81 62)
(63 82)
(8 83)
(84 8)
(64 85)
(9 59)
(67 9)
(86 68)
(69 10)
(10 87)
(70 88)
(89 72)
(90 65)
(11 66)
(74 11)
(12 75)
(91 12)
(76 92)
(93 77)
(94 79)
(71 95)
(13 73)
(80 13)
(14 81)
(96 14)
(82 97)
(98 84)
(85 99)
(78 100)
(15 86)
(101 15)
(88 102)
(103 89)
(83 22)
(87 24)
(92 16)
(19 93)
(21 94)
(33 90)
(35 91)
(97 26)
(29 98)
(99 30)
(95 40)
(43 96)
(102 36)
(39 103)
(100 47)
(50 101)
)

// concaveStart mixedStart nonFeatureStart
0 0 16
// internalStart flatStart openStart multipleStart
0 0 0 104
// normals

96
(
(1 1.8369e-16 0)
(-2.44922e-16 1 0)
(-1.2246e-16 1 0)
(1 1.8369e-16 -0)
(-2.4492e-16 1 0)
(-1 -6.123e-17 -0)
(1 1.8369e-16 -0)
(-2.4492e-16 1 0)
(-2.44922e-16 1 0)
(-1 -6.123e-17 -0)
(-1.2246e-16 1 0)
(-1 -6.12302e-17 0)
(-1 -6.1232e-17 0)
(-1.22462e-16 1 0)
(1 1.8369e-16 0)
(-2.44922e-16 1 0)
(-1.2246e-16 1 0)
(-1.2246e-16 1 0)
(1 1.8369e-16 0)
(-1 -6.123e-17 -0)
(1 1.8369e-16 -0)
(-2.4492e-16 1 0)
(1 1.83692e-16 -0)
(-2.44922e-16 1 0)
(-1.2246e-16 1 0)
(-1 -6.12302e-17 0)
(-2.44922e-16 1 0)
(-2.44922e-16 1 0)
(-1 -6.1232e-17 -0)
(1 1.8369e-16 0)
(-2.44922e-16 1 0)
(-1.2246e-16 1 0)
(-1 -6.123e-17 0)
(-1 -6.123e-17 -0)
(-2.4492e-16 1 0)
(-1.2246e-16 1 0)
(-1 -6.123e-17 -0)
(1 1.8369e-16 -0)
(-2.4492e-16 1 0)
(-1.2246e-16 1 0)
(-1.2246e-16 1 0)
(-1 -6.12302e-17 0)
(1 1.83692e-16 0)
(-1.2246e-16 1 0)
(-1 -6.12302e-17 0)
(1 1.8369e-16 -0)
(1 1.8369e-16 0)
(-2.44922e-16 1 0)
(-1.2246e-16 1 0)
(1 1.8369e-16 0)
(-2.44922e-16 1 0)
(-1.2246e-16 1 0)
(-1 -6.123e-17 -0)
(1 1.8369e-16 -0)
(-2.4492e-16 1 0)
(-1 -6.123e-17 -0)
(1 1.8369e-16 -0)
(-2.4492e-16 1 0)
(-2.4492e-16 1 0)
(-1.2246e-16 1 0)
(-1 -6.12302e-17 0)
(-2.44922e-16 1 0)
(-1.2246e-16 1 0)
(-1 -6.12302e-17 0)
(-1 -6.12302e-17 -0)
(1 1.8369e-16 0)
(-2.44922e-16 1 0)
(-1.2246e-16 1 0)
(-1 -6.123e-17 0)
(1 1.8369e-16 0)
(-1.2246e-16 1 0)
(-1.2246e-16 1 0)
(-1 -6.123e-17 -0)
(1 1.8369e-16 -0)
(-2.4492e-16 1 0)
(-1.2246e-16 1 0)
(1 1.8369e-16 -0)
(1 1.8369e-16 0)
(-1.2246e-16 1 0)
(-1 -6.12302e-17 0)
(1 1.83692e-16 -0)
(-2.44922e-16 1 0)
(1 1.8369e-16 0)
(-2.44922e-16 1 0)
(-1.2246e-16 1 0)
(-2.4492e-16 1 0)
(-1 -6.123e-17 -0)
(-1 -6.123e-17 -0)
(1 1.8369e-16 -0)
(-2.4492e-16 1 0)
(-1 -6.123e-17 0)
(-1.2246e-16 1 0)
(-1.2246e-16 1 0)
(-1 -6.12302e-17 0)
(-1.22462e-16 1 0)
(1 1.83692e-16 0)
)

// normal volume types

96
(
0
0
0
0
0
0
0
0
0
0
0
0
0
0
0
0
0
0
0
0
0
0
0
0
0
0
0
0
0
0
0
0
0
0
0
0
0
0
0
0
0
0
0
0
0
0
0
0
0
0
0
0
0
0
0
0
0
0
0
0
0
0
0
0
0
0
0
0
0
0
0
0
0
0
0
0
0
0
0
0
0
0
0
0
0
0
0
0
0
0
0
0
0
0
0
0
)

// normalDirections

104
(
1(1)
1(1)
1(1)
1(1)
1(1)
1(1)
1(1)
1(1)
1(1)
1(1)
1(1)
1(1)
1(1)
1(1)
1(1)
1(1)
1(1)
1(1)
1(1)
1(1)
1(1)
1(1)
1(1)
1(1)
1(1)
1(1)
1(1)
1(1)
1(1)
1(1)
1(1)
1(1)
1(1)
1(1)
1(1)
1(1)
1(1)
1(1)
1(1)
1(1)
1(1)
1(1)
1(1)
1(1)
1(1)
1(1)
1(1)
1(1)
1(1)
1(1)
1(1)
1(1)
1(1)
1(1)
1(1)
1(1)
1(1)
1(1)
1(1)
1(1)
1(1)
1(1)
1(1)
1(1)
1(1)
1(1)
1(1)
1(1)
1(1)
1(1)
1(1)
1(1)
1(1)
1(1)
1(1)
1(1)
1(1)
1(1)
1(1)
1(1)
1(1)
1(1)
1(1)
1(1)
1(1)
1(1)
1(1)
1(1)
1(1)
1(1)
1(1)
1(1)
1(1)
1(1)
1(1)
1(1)
1(1)
1(1)
1(1)
1(1)
1(1)
1(1)
1(1)
1(1)
)

// edgeNormals

104
(
1(0)
1(1)
1(2)
1(3)
1(4)
1(5)
1(6)
1(7)
1(8)
1(9)
1(10)
1(11)
1(12)
1(13)
1(14)
1(15)
1(16)
1(17)
1(18)
1(19)
1(20)
1(21)
1(22)
1(23)
1(24)
1(25)
1(26)
1(27)
1(28)
1(29)
1(30)
1(31)
1(32)
1(33)
1(34)
1(34)
1(35)
1(36)
1(37)
1(38)
1(39)
1(40)
1(41)
1(41)
1(42)
1(43)
1(44)
1(45)
1(46)
1(47)
1(48)
1(48)
1(49)
1(50)
1(50)
1(51)
1(52)
1(53)
1(53)
1(54)
1(55)
1(55)
1(56)
1(57)
1(58)
1(59)
1(60)
1(61)
1(62)
1(62)
1(63)
1(64)
1(65)
1(66)
1(67)
1(68)
1(69)
1(69)
1(70)
1(71)
1(72)
1(73)
1(74)
1(75)
1(76)
1(77)
1(78)
1(79)
1(80)
1(81)
1(82)
1(83)
1(84)
1(85)
1(86)
1(87)
1(88)
1(89)
1(90)
1(91)
1(92)
1(93)
1(94)
1(95)
)

// featurePointNormals

16
(
1(26)
1(32)
1(34)
1(39)
1(41)
1(45)
1(48)
1(50)
1(53)
1(55)
1(57)
1(62)
1(63)
1(69)
1(70)
1(76)
)

// featurePointEdges

16
(
2(26 27)
2(32 33)
2(34 35)
2(40 41)
2(42 43)
2(47 48)
2(50 51)
2(53 54)
2(57 58)
2(60 61)
2(63 64)
2(68 69)
2(70 71)
2(76 77)
2(78 79)
2(84 85)
)

// regionEdges

104
(
0
1
2
3
4
5
6
7
8
9
10
11
12
13
14
15
16
17
18
19
20
21
22
23
24
25
26
27
28
29
30
31
32
33
34
35
36
37
38
39
40
41
42
43
44
45
46
47
48
49
50
51
52
53
54
55
56
57
58
59
60
61
62
63
64
65
66
67
68
69
70
71
72
73
74
75
76
77
78
79
80
81
82
83
84
85
86
87
88
89
90
91
92
93
94
95
96
97
98
99
100
101
102
103
)



// ************************************************************************* //
