/*--------------------------------*- C++ -*----------------------------------*\
| =========                 |                                                 |
| \\      /  F ield         | OpenFOAM: The Open Source CFD Toolbox           |
|  \\    /   O peration     | Version:  2.4.0                                 |
|   \\  /    A nd           | Web:      www.OpenFOAM.org                      |
|    \\/     M anipulation  |                                                 |
\*---------------------------------------------------------------------------*/
FoamFile
{
    version     2.0;
    format      ascii;
    class       polyBoundaryMesh;
    location    "constant/polyMesh";
    object      boundary;
}
// * * * * * * * * * * * * * * * * * * * * * * * * * * * * * * * * * * * * * //

5
(
    outlet
    {
        type            patch;
        nFaces          1200;
        startFace       104700;
    }
    inlet
    {
        type            patch;
        nFaces          1200;
        startFace       105900;
    }
    inner
    {
        type            wall;
        inGroups        1(wall);
        nFaces          1200;
        startFace       107100;
    }
    outer
    {
        type            wall;
        inGroups        1(wall);
        nFaces          1200;
        startFace       108300;
    }
    defaultFaces
    {
        type            empty;
        inGroups        1(empty);
        nFaces          1800;
        startFace       109500;
    }
)

// ************************************************************************* //
