/*--------------------------------*- C++ -*----------------------------------*\
| =========                 |                                                 |
| \\      /  F ield         | OpenFOAM: The Open Source CFD Toolbox           |
|  \\    /   O peration     | Version:  2.4.0                                 |
|   \\  /    A nd           | Web:      www.OpenFOAM.org                      |
|    \\/     M anipulation  |                                                 |
\*---------------------------------------------------------------------------*/
FoamFile
{
    version     2.0;
    format      ascii;
    class       polyBoundaryMesh;
    location    "3/polyMesh";
    object      boundary;
}
// * * * * * * * * * * * * * * * * * * * * * * * * * * * * * * * * * * * * * //

4
(
    inlet
    {
        type            patch;
        nFaces          100;
        startFace       555265;
    }
    outlet
    {
        type            patch;
        nFaces          100;
        startFace       555365;
    }
    defaultFaces
    {
        type            empty;
        inGroups        1(empty);
        nFaces          484;
        startFace       555465;
    }
    blade
    {
        type            wall;
        inGroups        
2
(
bladeGroup
wall
)
;
        nFaces          61756;
        startFace       555949;
    }
)

// ************************************************************************* //
