/*--------------------------------*- C++ -*----------------------------------*\
| =========                 |                                                 |
| \\      /  F ield         | OpenFOAM: The Open Source CFD Toolbox           |
|  \\    /   O peration     | Version:  2.4.0                                 |
|   \\  /    A nd           | Web:      www.OpenFOAM.org                      |
|    \\/     M anipulation  |                                                 |
\*---------------------------------------------------------------------------*/
FoamFile
{
    version     2.0;
    format      ascii;
    class       polyBoundaryMesh;
    location    "1/polyMesh";
    object      boundary;
}
// * * * * * * * * * * * * * * * * * * * * * * * * * * * * * * * * * * * * * //

4
(
    inlet
    {
        type            patch;
        nFaces          100;
        startFace       554478;
    }
    outlet
    {
        type            patch;
        nFaces          100;
        startFace       554578;
    }
    defaultFaces
    {
        type            empty;
        inGroups        1(empty);
        nFaces          484;
        startFace       554678;
    }
    blade
    {
        type            wall;
        inGroups        
2
(
bladeGroup
wall
)
;
        nFaces          83912;
        startFace       555162;
    }
)

// ************************************************************************* //
