/*--------------------------------*- C++ -*----------------------------------*\
| =========                 |                                                 |
| \\      /  F ield         | OpenFOAM: The Open Source CFD Toolbox           |
|  \\    /   O peration     | Version:  2.4.0                                 |
|   \\  /    A nd           | Web:      www.OpenFOAM.org                      |
|    \\/     M anipulation  |                                                 |
\*---------------------------------------------------------------------------*/
FoamFile
{
    version     2.0;
    format      ascii;
    class       polyBoundaryMesh;
    location    "30/polyMesh";
    object      boundary;
}
// * * * * * * * * * * * * * * * * * * * * * * * * * * * * * * * * * * * * * //

6
(
    outlet
    {
        type            patch;
        nFaces          1200;
        startFace       471247;
    }
    inlet
    {
        type            patch;
        nFaces          1200;
        startFace       472447;
    }
    inner
    {
        type            wall;
        inGroups        1(wall);
        nFaces          1200;
        startFace       473647;
    }
    outer
    {
        type            wall;
        inGroups        1(wall);
        nFaces          1200;
        startFace       474847;
    }
    defaultFaces
    {
        type            empty;
        inGroups        1(empty);
        nFaces          2464;
        startFace       476047;
    }
    blade
    {
        type            wall;
        inGroups        
2
(
bladeGroup
wall
)
;
        nFaces          46000;
        startFace       478511;
    }
)

// ************************************************************************* //
